 INFO
nunit      1    1    1
unit   cell
celltype   convcell
shape   parapipedal
 END_INFO
 DIM-GROUP
           3           1
 PRIMVEC
    2.5151413320   -0.0000000000    0.0000000000
   -1.2575719160    2.1781764880    0.0000000000
    0.0000000000    0.0000000000   14.9999930330
 CONVVEC
    2.5151413320   -0.0000000000    0.0000000000
   -1.2575719160    2.1781764880    0.0000000000
    0.0000000000    0.0000000000   14.9999930330
 PRIMCOORD
           2           1
  5     -0.0000012570     1.4521184630     7.4999965160    -0.0000000000    -0.0000000000     0.0000000000
  7      1.2575721080     0.7260581430     7.4999965160    -0.0000000000    -0.0000000000     0.0000000000
 CONVCOORD
           2           1
  5     -0.0000012570     1.4521184630     7.4999965160
  7      1.2575721080     0.7260581430     7.4999965160
 RECIP-PRIMVEC
    0.3975919712    0.2295500386   -0.0000000000

    0.0000000000    0.4590996209   -0.0000000000

   -0.0000000000   -0.0000000000    0.0666666976

 RECIP-CONVVEC
    0.3975919712    0.2295500386   -0.0000000000

    0.0000000000    0.4590996209   -0.0000000000

   -0.0000000000   -0.0000000000    0.0666666976

 WIGNER-SEITZ-PRIMCELL
           4
 -0.1257571E+01 -0.7260589E+00 -0.7499997E+01  -0.4999996E+00 -0.8660256E+00  0.5843703E-16
  0.1250000E-05 -0.1452118E+01 -0.7499997E+01  -0.4999996E+00 -0.8660256E+00  0.5843703E-16
  0.1250000E-05 -0.1452118E+01  0.7499997E+01  -0.4999996E+00 -0.8660256E+00  0.5843703E-16
 -0.1257571E+01 -0.7260589E+00  0.7499997E+01  -0.4999996E+00 -0.8660256E+00  0.5843703E-16
           4
 -0.1257571E+01  0.7260589E+00  0.7499997E+01  -0.1000000E+01  0.0000000E+00  0.0000000E+00
 -0.1257571E+01  0.7260589E+00 -0.7499997E+01  -0.1000000E+01  0.0000000E+00  0.0000000E+00
 -0.1257571E+01 -0.7260589E+00 -0.7499997E+01  -0.1000000E+01  0.0000000E+00  0.0000000E+00
 -0.1257571E+01 -0.7260589E+00  0.7499997E+01  -0.1000000E+01  0.0000000E+00  0.0000000E+00
           4
  0.1250000E-05 -0.1452118E+01  0.7499997E+01   0.5000003E+00 -0.8660252E+00  0.7135851E-16
  0.1250000E-05 -0.1452118E+01 -0.7499997E+01   0.5000003E+00 -0.8660252E+00  0.7135851E-16
  0.1257571E+01 -0.7260589E+00 -0.7499997E+01   0.5000003E+00 -0.8660252E+00  0.7135851E-16
  0.1257571E+01 -0.7260589E+00  0.7499997E+01   0.5000003E+00 -0.8660252E+00  0.7135851E-16
           6
 -0.1257571E+01 -0.7260589E+00 -0.7499997E+01   0.0000000E+00  0.0000000E+00 -0.1000000E+01
 -0.1257571E+01  0.7260589E+00 -0.7499997E+01   0.0000000E+00  0.0000000E+00 -0.1000000E+01
 -0.1250000E-05  0.1452118E+01 -0.7499997E+01   0.0000000E+00  0.0000000E+00 -0.1000000E+01
  0.1257571E+01  0.7260589E+00 -0.7499997E+01   0.0000000E+00  0.0000000E+00 -0.1000000E+01
  0.1257571E+01 -0.7260589E+00 -0.7499997E+01   0.0000000E+00  0.0000000E+00 -0.1000000E+01
  0.1250000E-05 -0.1452118E+01 -0.7499997E+01   0.0000000E+00  0.0000000E+00 -0.1000000E+01
           6
  0.1250000E-05 -0.1452118E+01  0.7499997E+01  -0.0000000E+00 -0.0000000E+00  0.1000000E+01
  0.1257571E+01 -0.7260589E+00  0.7499997E+01  -0.0000000E+00 -0.0000000E+00  0.1000000E+01
  0.1257571E+01  0.7260589E+00  0.7499997E+01  -0.0000000E+00 -0.0000000E+00  0.1000000E+01
 -0.1250000E-05  0.1452118E+01  0.7499997E+01  -0.0000000E+00 -0.0000000E+00  0.1000000E+01
 -0.1257571E+01  0.7260589E+00  0.7499997E+01  -0.0000000E+00 -0.0000000E+00  0.1000000E+01
 -0.1257571E+01 -0.7260589E+00  0.7499997E+01  -0.0000000E+00 -0.0000000E+00  0.1000000E+01
           4
 -0.1257571E+01  0.7260589E+00  0.7499997E+01  -0.5000003E+00  0.8660252E+00 -0.1462376E-16
 -0.1250000E-05  0.1452118E+01  0.7499997E+01  -0.5000003E+00  0.8660252E+00 -0.1462376E-16
 -0.1250000E-05  0.1452118E+01 -0.7499997E+01  -0.5000003E+00  0.8660252E+00 -0.1462376E-16
 -0.1257571E+01  0.7260589E+00 -0.7499997E+01  -0.5000003E+00  0.8660252E+00 -0.1462376E-16
           4
  0.1257571E+01 -0.7260589E+00 -0.7499997E+01   0.1000000E+01 -0.0000000E+00 -0.0000000E+00
  0.1257571E+01  0.7260589E+00 -0.7499997E+01   0.1000000E+01 -0.0000000E+00 -0.0000000E+00
  0.1257571E+01  0.7260589E+00  0.7499997E+01   0.1000000E+01 -0.0000000E+00 -0.0000000E+00
  0.1257571E+01 -0.7260589E+00  0.7499997E+01   0.1000000E+01 -0.0000000E+00 -0.0000000E+00
           4
 -0.1250000E-05  0.1452118E+01  0.7499997E+01   0.4999996E+00  0.8660256E+00 -0.2218109E-16
  0.1257571E+01  0.7260589E+00  0.7499997E+01   0.4999996E+00  0.8660256E+00 -0.2218109E-16
  0.1257571E+01  0.7260589E+00 -0.7499997E+01   0.4999996E+00  0.8660256E+00 -0.2218109E-16
 -0.1250000E-05  0.1452118E+01 -0.7499997E+01   0.4999996E+00  0.8660256E+00 -0.2218109E-16
 WIGNER-SEITZ-PRIMCELL_END
 WIGNER-SEITZ-CONVCELL
           4
 -0.1257571E+01 -0.7260589E+00 -0.7499997E+01  -0.4999996E+00 -0.8660256E+00  0.5843703E-16
  0.1250000E-05 -0.1452118E+01 -0.7499997E+01  -0.4999996E+00 -0.8660256E+00  0.5843703E-16
  0.1250000E-05 -0.1452118E+01  0.7499997E+01  -0.4999996E+00 -0.8660256E+00  0.5843703E-16
 -0.1257571E+01 -0.7260589E+00  0.7499997E+01  -0.4999996E+00 -0.8660256E+00  0.5843703E-16
           4
 -0.1257571E+01  0.7260589E+00  0.7499997E+01  -0.1000000E+01  0.0000000E+00  0.0000000E+00
 -0.1257571E+01  0.7260589E+00 -0.7499997E+01  -0.1000000E+01  0.0000000E+00  0.0000000E+00
 -0.1257571E+01 -0.7260589E+00 -0.7499997E+01  -0.1000000E+01  0.0000000E+00  0.0000000E+00
 -0.1257571E+01 -0.7260589E+00  0.7499997E+01  -0.1000000E+01  0.0000000E+00  0.0000000E+00
           4
  0.1250000E-05 -0.1452118E+01  0.7499997E+01   0.5000003E+00 -0.8660252E+00  0.7135851E-16
  0.1250000E-05 -0.1452118E+01 -0.7499997E+01   0.5000003E+00 -0.8660252E+00  0.7135851E-16
  0.1257571E+01 -0.7260589E+00 -0.7499997E+01   0.5000003E+00 -0.8660252E+00  0.7135851E-16
  0.1257571E+01 -0.7260589E+00  0.7499997E+01   0.5000003E+00 -0.8660252E+00  0.7135851E-16
           6
 -0.1257571E+01 -0.7260589E+00 -0.7499997E+01   0.0000000E+00  0.0000000E+00 -0.1000000E+01
 -0.1257571E+01  0.7260589E+00 -0.7499997E+01   0.0000000E+00  0.0000000E+00 -0.1000000E+01
 -0.1250000E-05  0.1452118E+01 -0.7499997E+01   0.0000000E+00  0.0000000E+00 -0.1000000E+01
  0.1257571E+01  0.7260589E+00 -0.7499997E+01   0.0000000E+00  0.0000000E+00 -0.1000000E+01
  0.1257571E+01 -0.7260589E+00 -0.7499997E+01   0.0000000E+00  0.0000000E+00 -0.1000000E+01
  0.1250000E-05 -0.1452118E+01 -0.7499997E+01   0.0000000E+00  0.0000000E+00 -0.1000000E+01
           6
  0.1250000E-05 -0.1452118E+01  0.7499997E+01  -0.0000000E+00 -0.0000000E+00  0.1000000E+01
  0.1257571E+01 -0.7260589E+00  0.7499997E+01  -0.0000000E+00 -0.0000000E+00  0.1000000E+01
  0.1257571E+01  0.7260589E+00  0.7499997E+01  -0.0000000E+00 -0.0000000E+00  0.1000000E+01
 -0.1250000E-05  0.1452118E+01  0.7499997E+01  -0.0000000E+00 -0.0000000E+00  0.1000000E+01
 -0.1257571E+01  0.7260589E+00  0.7499997E+01  -0.0000000E+00 -0.0000000E+00  0.1000000E+01
 -0.1257571E+01 -0.7260589E+00  0.7499997E+01  -0.0000000E+00 -0.0000000E+00  0.1000000E+01
           4
 -0.1257571E+01  0.7260589E+00  0.7499997E+01  -0.5000003E+00  0.8660252E+00 -0.1462376E-16
 -0.1250000E-05  0.1452118E+01  0.7499997E+01  -0.5000003E+00  0.8660252E+00 -0.1462376E-16
 -0.1250000E-05  0.1452118E+01 -0.7499997E+01  -0.5000003E+00  0.8660252E+00 -0.1462376E-16
 -0.1257571E+01  0.7260589E+00 -0.7499997E+01  -0.5000003E+00  0.8660252E+00 -0.1462376E-16
           4
  0.1257571E+01 -0.7260589E+00 -0.7499997E+01   0.1000000E+01 -0.0000000E+00 -0.0000000E+00
  0.1257571E+01  0.7260589E+00 -0.7499997E+01   0.1000000E+01 -0.0000000E+00 -0.0000000E+00
  0.1257571E+01  0.7260589E+00  0.7499997E+01   0.1000000E+01 -0.0000000E+00 -0.0000000E+00
  0.1257571E+01 -0.7260589E+00  0.7499997E+01   0.1000000E+01 -0.0000000E+00 -0.0000000E+00
           4
 -0.1250000E-05  0.1452118E+01  0.7499997E+01   0.4999996E+00  0.8660256E+00 -0.2218109E-16
  0.1257571E+01  0.7260589E+00  0.7499997E+01   0.4999996E+00  0.8660256E+00 -0.2218109E-16
  0.1257571E+01  0.7260589E+00 -0.7499997E+01   0.4999996E+00  0.8660256E+00 -0.2218109E-16
 -0.1250000E-05  0.1452118E+01 -0.7499997E+01   0.4999996E+00  0.8660256E+00 -0.2218109E-16
 WIGNER-SEITZ-CONVCELL_END
 BRILLOUIN-ZONE-PRIMCELL
           4
 -0.2650613E+00 -0.2281679E-06 -0.3333335E-01  -0.8660252E+00 -0.5000003E+00 -0.3926765E-15
 -0.1325307E+00 -0.2295498E+00 -0.3333335E-01  -0.8660252E+00 -0.5000003E+00 -0.3926765E-15
 -0.1325307E+00 -0.2295498E+00  0.3333335E-01  -0.8660252E+00 -0.5000003E+00 -0.3926765E-15
 -0.2650613E+00 -0.2281679E-06  0.3333335E-01  -0.8660252E+00 -0.5000003E+00 -0.3926765E-15
           4
 -0.2650613E+00 -0.2281679E-06  0.3333335E-01  -0.8660256E+00  0.4999996E+00  0.0000000E+00
 -0.1325307E+00  0.2295498E+00  0.3333335E-01  -0.8660256E+00  0.4999996E+00  0.0000000E+00
 -0.1325307E+00  0.2295498E+00 -0.3333335E-01  -0.8660256E+00  0.4999996E+00  0.0000000E+00
 -0.2650613E+00 -0.2281679E-06 -0.3333335E-01  -0.8660256E+00  0.4999996E+00  0.0000000E+00
           4
 -0.1325307E+00 -0.2295498E+00 -0.3333335E-01  -0.0000000E+00 -0.1000000E+01 -0.0000000E+00
  0.1325307E+00 -0.2295498E+00 -0.3333335E-01  -0.0000000E+00 -0.1000000E+01 -0.0000000E+00
  0.1325307E+00 -0.2295498E+00  0.3333335E-01  -0.0000000E+00 -0.1000000E+01 -0.0000000E+00
 -0.1325307E+00 -0.2295498E+00  0.3333335E-01  -0.0000000E+00 -0.1000000E+01 -0.0000000E+00
           6
 -0.2650613E+00 -0.2281679E-06 -0.3333335E-01   0.0000000E+00  0.0000000E+00 -0.1000000E+01
 -0.1325307E+00  0.2295498E+00 -0.3333335E-01   0.0000000E+00  0.0000000E+00 -0.1000000E+01
  0.1325307E+00  0.2295498E+00 -0.3333335E-01   0.0000000E+00  0.0000000E+00 -0.1000000E+01
  0.2650613E+00  0.2281679E-06 -0.3333335E-01   0.0000000E+00  0.0000000E+00 -0.1000000E+01
  0.1325307E+00 -0.2295498E+00 -0.3333335E-01   0.0000000E+00  0.0000000E+00 -0.1000000E+01
 -0.1325307E+00 -0.2295498E+00 -0.3333335E-01   0.0000000E+00  0.0000000E+00 -0.1000000E+01
           6
 -0.1325307E+00 -0.2295498E+00  0.3333335E-01  -0.0000000E+00  0.1425530E-16  0.1000000E+01
  0.1325307E+00 -0.2295498E+00  0.3333335E-01  -0.0000000E+00  0.1425530E-16  0.1000000E+01
  0.2650613E+00  0.2281679E-06  0.3333335E-01  -0.0000000E+00  0.1425530E-16  0.1000000E+01
  0.1325307E+00  0.2295498E+00  0.3333335E-01  -0.0000000E+00  0.1425530E-16  0.1000000E+01
 -0.1325307E+00  0.2295498E+00  0.3333335E-01  -0.0000000E+00  0.1425530E-16  0.1000000E+01
 -0.2650613E+00 -0.2281679E-06  0.3333335E-01  -0.0000000E+00  0.1425530E-16  0.1000000E+01
           4
 -0.1325307E+00  0.2295498E+00  0.3333335E-01   0.0000000E+00  0.1000000E+01  0.0000000E+00
  0.1325307E+00  0.2295498E+00  0.3333335E-01   0.0000000E+00  0.1000000E+01  0.0000000E+00
  0.1325307E+00  0.2295498E+00 -0.3333335E-01   0.0000000E+00  0.1000000E+01  0.0000000E+00
 -0.1325307E+00  0.2295498E+00 -0.3333335E-01   0.0000000E+00  0.1000000E+01  0.0000000E+00
           4
  0.1325307E+00 -0.2295498E+00 -0.3333335E-01   0.8660256E+00 -0.4999996E+00 -0.0000000E+00
  0.2650613E+00  0.2281679E-06 -0.3333335E-01   0.8660256E+00 -0.4999996E+00 -0.0000000E+00
  0.2650613E+00  0.2281679E-06  0.3333335E-01   0.8660256E+00 -0.4999996E+00 -0.0000000E+00
  0.1325307E+00 -0.2295498E+00  0.3333335E-01   0.8660256E+00 -0.4999996E+00 -0.0000000E+00
           4
  0.2650613E+00  0.2281679E-06  0.3333335E-01   0.8660252E+00  0.5000003E+00 -0.5890153E-15
  0.2650613E+00  0.2281679E-06 -0.3333335E-01   0.8660252E+00  0.5000003E+00 -0.5890153E-15
  0.1325307E+00  0.2295498E+00 -0.3333335E-01   0.8660252E+00  0.5000003E+00 -0.5890153E-15
  0.1325307E+00  0.2295498E+00  0.3333335E-01   0.8660252E+00  0.5000003E+00 -0.5890153E-15
 BRILLOUIN-ZONE-PRIMCELL_END
 BRILLOUIN-ZONE-CONVCELL
           4
 -0.2650613E+00 -0.2281679E-06 -0.3333335E-01  -0.8660252E+00 -0.5000003E+00 -0.3926765E-15
 -0.1325307E+00 -0.2295498E+00 -0.3333335E-01  -0.8660252E+00 -0.5000003E+00 -0.3926765E-15
 -0.1325307E+00 -0.2295498E+00  0.3333335E-01  -0.8660252E+00 -0.5000003E+00 -0.3926765E-15
 -0.2650613E+00 -0.2281679E-06  0.3333335E-01  -0.8660252E+00 -0.5000003E+00 -0.3926765E-15
           4
 -0.2650613E+00 -0.2281679E-06  0.3333335E-01  -0.8660256E+00  0.4999996E+00  0.0000000E+00
 -0.1325307E+00  0.2295498E+00  0.3333335E-01  -0.8660256E+00  0.4999996E+00  0.0000000E+00
 -0.1325307E+00  0.2295498E+00 -0.3333335E-01  -0.8660256E+00  0.4999996E+00  0.0000000E+00
 -0.2650613E+00 -0.2281679E-06 -0.3333335E-01  -0.8660256E+00  0.4999996E+00  0.0000000E+00
           4
 -0.1325307E+00 -0.2295498E+00 -0.3333335E-01  -0.0000000E+00 -0.1000000E+01 -0.0000000E+00
  0.1325307E+00 -0.2295498E+00 -0.3333335E-01  -0.0000000E+00 -0.1000000E+01 -0.0000000E+00
  0.1325307E+00 -0.2295498E+00  0.3333335E-01  -0.0000000E+00 -0.1000000E+01 -0.0000000E+00
 -0.1325307E+00 -0.2295498E+00  0.3333335E-01  -0.0000000E+00 -0.1000000E+01 -0.0000000E+00
           6
 -0.2650613E+00 -0.2281679E-06 -0.3333335E-01   0.0000000E+00  0.0000000E+00 -0.1000000E+01
 -0.1325307E+00  0.2295498E+00 -0.3333335E-01   0.0000000E+00  0.0000000E+00 -0.1000000E+01
  0.1325307E+00  0.2295498E+00 -0.3333335E-01   0.0000000E+00  0.0000000E+00 -0.1000000E+01
  0.2650613E+00  0.2281679E-06 -0.3333335E-01   0.0000000E+00  0.0000000E+00 -0.1000000E+01
  0.1325307E+00 -0.2295498E+00 -0.3333335E-01   0.0000000E+00  0.0000000E+00 -0.1000000E+01
 -0.1325307E+00 -0.2295498E+00 -0.3333335E-01   0.0000000E+00  0.0000000E+00 -0.1000000E+01
           6
 -0.1325307E+00 -0.2295498E+00  0.3333335E-01  -0.0000000E+00  0.1425530E-16  0.1000000E+01
  0.1325307E+00 -0.2295498E+00  0.3333335E-01  -0.0000000E+00  0.1425530E-16  0.1000000E+01
  0.2650613E+00  0.2281679E-06  0.3333335E-01  -0.0000000E+00  0.1425530E-16  0.1000000E+01
  0.1325307E+00  0.2295498E+00  0.3333335E-01  -0.0000000E+00  0.1425530E-16  0.1000000E+01
 -0.1325307E+00  0.2295498E+00  0.3333335E-01  -0.0000000E+00  0.1425530E-16  0.1000000E+01
 -0.2650613E+00 -0.2281679E-06  0.3333335E-01  -0.0000000E+00  0.1425530E-16  0.1000000E+01
           4
 -0.1325307E+00  0.2295498E+00  0.3333335E-01   0.0000000E+00  0.1000000E+01  0.0000000E+00
  0.1325307E+00  0.2295498E+00  0.3333335E-01   0.0000000E+00  0.1000000E+01  0.0000000E+00
  0.1325307E+00  0.2295498E+00 -0.3333335E-01   0.0000000E+00  0.1000000E+01  0.0000000E+00
 -0.1325307E+00  0.2295498E+00 -0.3333335E-01   0.0000000E+00  0.1000000E+01  0.0000000E+00
           4
  0.1325307E+00 -0.2295498E+00 -0.3333335E-01   0.8660256E+00 -0.4999996E+00 -0.0000000E+00
  0.2650613E+00  0.2281679E-06 -0.3333335E-01   0.8660256E+00 -0.4999996E+00 -0.0000000E+00
  0.2650613E+00  0.2281679E-06  0.3333335E-01   0.8660256E+00 -0.4999996E+00 -0.0000000E+00
  0.1325307E+00 -0.2295498E+00  0.3333335E-01   0.8660256E+00 -0.4999996E+00 -0.0000000E+00
           4
  0.2650613E+00  0.2281679E-06  0.3333335E-01   0.8660252E+00  0.5000003E+00 -0.5890153E-15
  0.2650613E+00  0.2281679E-06 -0.3333335E-01   0.8660252E+00  0.5000003E+00 -0.5890153E-15
  0.1325307E+00  0.2295498E+00 -0.3333335E-01   0.8660252E+00  0.5000003E+00 -0.5890153E-15
  0.1325307E+00  0.2295498E+00  0.3333335E-01   0.8660252E+00  0.5000003E+00 -0.5890153E-15
 BRILLOUIN-ZONE-CONVCELL_END
 ATOMS
    5   -0.0000012570    1.4521184630    7.4999965160   -0.0000000000   -0.0000000000    0.0000000000
    7    1.2575721080    0.7260581430    7.4999965160   -0.0000000000   -0.0000000000    0.0000000000
 FRAMES
1      0.0000000000    0.0000000000    0.0000000000      2.5151413320    0.0000000000    0.0000000000
1      0.0000000000    0.0000000000    0.0000000000     -1.2575719160    2.1781764880    0.0000000000
1      0.0000000000    0.0000000000    0.0000000000      0.0000000000    0.0000000000   14.9999930330
1      0.0000000000    0.0000000000   14.9999930330      2.5151413320    0.0000000000   14.9999930330
1      0.0000000000    0.0000000000   14.9999930330     -1.2575719160    2.1781764880   14.9999930330
1     -1.2575719160    2.1781764880    0.0000000000      1.2575694160    2.1781764880    0.0000000000
1     -1.2575719160    2.1781764880    0.0000000000     -1.2575719160    2.1781764880   14.9999930330
1     -1.2575719160    2.1781764880   14.9999930330      1.2575694160    2.1781764880   14.9999930330
1      2.5151413320    0.0000000000    0.0000000000      1.2575694160    2.1781764880    0.0000000000
1      2.5151413320    0.0000000000    0.0000000000      2.5151413320    0.0000000000   14.9999930330
1      2.5151413320    0.0000000000   14.9999930330      1.2575694160    2.1781764880   14.9999930330
1      1.2575694160    2.1781764880    0.0000000000      1.2575694160    2.1781764880   14.9999930330
